  Page 1                                    Fri Mar 20 08:51:41 2026

  ******************************************************************
  *                           E P A N E T                          *
  *                   Hydraulic and Water Quality                  *
  *                   Analysis for Pipe Networks                   *
  *                         Version 2.2                            *
  ******************************************************************
  
  Analysis begun Fri Mar 20 08:51:41 2026

  Analysis ended Fri Mar 20 08:51:41 2026
