  Page 1                                    Wed Apr 08 14:05:27 2026

  ******************************************************************
  *                           E P A N E T                          *
  *                   Hydraulic and Water Quality                  *
  *                   Analysis for Pipe Networks                   *
  *                         Version 2.2                            *
  ******************************************************************
  
  Analysis begun Wed Apr 08 14:05:27 2026

  Analysis ended Wed Apr 08 14:05:27 2026
